 &time_control
 run_days                            = 2,
 run_hours                           = 0,	  
 run_minutes                         = 0, 
 run_seconds                         = 0,
 start_year                          = 2011, 
 start_month                         = 07,
 start_day                           = 01, 
 start_hour                          = 00,
 start_minute                        = 00,
 start_second                        = 00,
 end_year                            = 2011, 
 end_month                           = 07,
 end_day                             = 02,
 end_hour                            = 00,
 end_minute                          = 00,
 end_second                          = 00,
 interval_seconds                    = 10800,
 input_from_file                     = .true., 
 history_interval                    = 60, 
 frames_per_outfile                  = 133,
 restart                             = .false.,
 restart_interval                    = 1440,
 io_form_history                     = 2,
 io_form_restart                     = 2,
 io_form_input                       = 2,
 io_form_boundary                    = 2,
 debug_level                         = 1000,
 io_form_auxinput4                   = 2,
 auxinput1_inname                    = "met_em.d<domain>.<date>",
 auxinput4_inname                    = "wrflowinp_d<domain>",
 auxinput4_interval                  = 180,
 auxinput4_end_h                     = 9999,
 /

 &domains
 time_step                           = 24,
 time_step_fract_num                 = 0,
 time_step_fract_den                 = 1,
 max_dom                             = 1,
 e_we                                = 313, 
 e_sn                                = 328,
 e_vert                              = 36,
 num_metgrid_levels                  = 40,
 p_top_requested                     = 5000,
 eta_levels                          = 1.000, 0.9975, 0.995, 0.990, 0.985, 0.980,
                                       0.970, 0.960, 0.950, 0.940, 0.930,
                                       0.920, 0.910, 0.900, 0.880, 0.860,
                                       0.840, 0.820, 0.800, 0.770, 0.740,
                                       0.700, 0.650, 0.600, 0.550, 0.500,
                                       0.450, 0.400, 0.350, 0.300, 0.250,
                                       0.200, 0.150, 0.100, 0.050, 0.000 
 dx                                  = 4000, 
 dy                                  = 4000,
 grid_id                             = 1, 
 parent_id                           = 0,
 i_parent_start                      = 306,
 j_parent_start                      = 96,
 parent_grid_ratio                   = 3,
 parent_time_step_ratio              = 1,
 feedback                            = 0,
 smooth_option                       = 0,
 /

 &physics
 mp_physics                          = 28, 
 mp_zero_out                         = 2,
 ra_lw_physics                       = 4,
 ra_sw_physics                       = 4,
 radt                                = 20, 
 sf_sfclay_physics                   = 7,
 sf_surface_physics                  = 7,
 bl_pbl_physics                      = 7,
 bldt                                = 0,
 scalar_pblmix			     = 1,
 cu_physics                          = 0,
 cudt                                = 0,
 isfflx                              = 1,
 ifsnow                              = 1,
 icloud                              = 1,
 surface_input_source                = 1,
 num_soil_layers                     = 2,
 sst_update                          = 1,
 sst_skin                            = 0,
 pxlsm_smois_init                    = 0,			  
 slope_rad                           = 1,
 topo_shading                        = 1,
 shadlen                             = 25000., 
 num_land_cat                        = 40,
 use_aero_icbc			     = .T., 
/

 &fdda
 grid_fdda                           = 1,
 grid_sfdda                          = 1,
 pxlsm_soil_nudge                    = 1,
 sgfdda_inname                       = "wrfsfdda_d<domain>"
 sgfdda_end_h	                       = 99999,
 sgfdda_interval_m                   = 180,
 sgfdda_interval                     = 10800,
 gfdda_end_h                         = 99999,
 gfdda_interval_m                    = 180, 
 gfdda_inname                        = "wrffdda_d<domain>"
 fgdt                                = 0,
 if_no_pbl_nudging_uv                = 1, 
 if_no_pbl_nudging_t                 = 1, 
 if_no_pbl_nudging_q                 = 1, 
 if_zfac_uv                          = 0, 
  k_zfac_uv                          = 0,
 if_zfac_t                           = 0,
  k_zfac_t                           = 0,
 if_zfac_q                           = 0,  
  k_zfac_q                           = 0,
 guv                                 = 0.0001,
 gt                                  = 0.0001,
 gq                                  = 0.00001,
 guv_sfc                             = 0.0000, 
 gt_sfc                              = 0.0000,
 gq_sfc                              = 0.0000,  
 if_ramping                          = 1,
 dtramp_min                          = 60.0,
 rinblw                              = 250.0,
 /

 &dynamics
 w_damping                           = 1,
 diff_opt                            = 1,
 km_opt                              = 4,
 diff_6th_opt                        = 2,
 diff_6th_factor                     = 0.12,
 base_temp                           = 290.,
 damp_opt                            = 3,
 zdamp                               = 5000.,
 dampcoef                            = 0.20,
 khdif                               = 0,
 kvdif                               = 0,
 non_hydrostatic                     = .true.,
 moist_adv_opt                       = 2, 
 tke_adv_opt                         = 2,
 scalar_adv_opt		             = 2,
 /

 &bdy_control
 spec_bdy_width                      = 5,
 spec_zone                           = 1,
 relax_zone                          = 4,
 specified                           = .true.,
 nested                              = .false.,
 /

 &grib2
 /

 &namelist_quilt
 nio_tasks_per_group = 0,
 nio_groups = 1,
 /

